FoamFile
{
 version 2.0;
 format ascii;
 class dictionary;
 object sampleDict;
}

dimensions      [0 1 -1 0 0 0 0];

internalField   uniform (1.5 0 0);

boundaryField
{
    Xmin
    {
        type            fixedValue;
        value           $internalField;
    }
}

