// -*- C++ -*-
// File generated by PyFoam - sorry for the ugliness

FoamFile
{
 version 2.0;
 format ascii;
 class dictionary;
 object sampleDict;
}

val1 10;

val2 20;

dctA
{
  val3 20;
  lst4 (4 5 6);
}

