/*--------------------------------*- C++ -*----------------------------------*\
| =========                 |                                                 |
| \\      /  F ield         | OpenFOAM: The Open Source CFD Toolbox           |
|  \\    /   O peration     | Version:  2406                                  |
|   \\  /    A nd           | Website:  www.openfoam.com                      |
|    \\/     M anipulation  |                                                 |
\*---------------------------------------------------------------------------*/
FoamFile
{
    version     2.0;
    format      ascii;
    arch        "LSB;label=32;scalar=64";
    class       polyBoundaryMesh;
    location    "constant/polyMesh";
    object      boundary;
}
// * * * * * * * * * * * * * * * * * * * * * * * * * * * * * * * * * * * * * //

6
(
    empty
    {
        type            empty;
        inGroups        1(empty);
        nFaces          60800;
        startFace       60320;
    }
    hole
    {
        type            wall;
        inGroups        1(wall);
        nFaces          320;
        startFace       121120;
    }
    Ymax
    {
        type            patch;
        nFaces          200;
        startFace       121440;
    }
    Ymin
    {
        type            patch;
        nFaces          200;
        startFace       121640;
    }
    Xmin
    {
        type            patch;
        nFaces          120;
        startFace       121840;
    }
    Xmax
    {
        type            patch;
        nFaces          120;
        startFace       121960;
    }
)

// ************************************************************************* //
